<routes>
    <vType accel="1.0" decel="5.0" id="Car" length="4.0" maxSpeed="100.0" sigma="0.0" />
    <vType accel="1.0" decel="5.0" id="Van" length="6.0" maxSpeed="100.0" sigma="0.0" guiShape="passenger/van" />
    
    <route id="route_wn" edges="w_m m_n"/>
    <route id="route_ws" edges="w_m m_s"/>
    <route id="route_en" edges="e_m m_n"/>
    <route id="route_es" edges="e_m m_s"/>
    <route id="route_ew" edges="e_m m_w"/>
    <route id="route_we" edges="w_m m_e"/>
    
    <flow depart="1" id="flow_w_n_car" route="route_wn" type="Car" begin="0" end="3600" probability="0.05" />
    <flow depart="1" id="flow_w_s_car" route="route_ws" type="Car" begin="0" end="3600" probability="0.05" />
    <flow depart="1" id="flow_e_n_car" route="route_en" type="Car" begin="0" end="3600" probability="0.05" />
    <flow depart="1" id="flow_e_s_car" route="route_es" type="Car" begin="0" end="3600" probability="0.05" />
    <flow depart="1" id="flow_w_n_van" route="route_wn" type="Van" begin="0" end="3600" probability="0.05" />
    <flow depart="1" id="flow_w_s_van" route="route_ws" type="Van" begin="0" end="3600" probability="0.05" />
    <flow depart="1" id="flow_e_n_van" route="route_en" type="Van" begin="0" end="3600" probability="0.05" />
    <flow depart="1" id="flow_e_s_van" route="route_es" type="Van" begin="0" end="3600" probability="0.05" />
    
    <flow depart="1" id="flow_e_w_car" route="route_ew" type="Car" begin="0" end="3600" probability="0.1" />
    <flow depart="1" id="flow_w_e_car" route="route_we" type="Car" begin="0" end="3600" probability="0.1" />
    <flow depart="1" id="flow_e_w_van" route="route_ew" type="Van" begin="0" end="3600" probability="0.1" />
    <flow depart="1" id="flow_w_e_van" route="route_we" type="Van" begin="0" end="3600" probability="0.1" />
</routes>
