<configuration>
    <input>
        <net-file value="cross2.net.xml"/>
        <route-files value="cross2.rou.xml"/>
        <!-- <additional-files value="cross2.add.xml"/> -->
    </input>

    <gui-settings-file value="view.settings.xml"/>
</configuration>
