<configuration>
    <input>
       <net-file value="cross.net.xml"/>
       <route-files value="cross.rou.xml"/>
       <additional-files value="cross.add.xml"/>
    </input>
</configuration>
