<?xml version="1.0" encoding="UTF-8"?>

<!-- generated on Sat 02 Dec 2017 05:46:58 PM EST by Netedit Version 0.30.0
<?xml version="1.0" encoding="UTF-8"?>

<configuration xmlns:xsi="http://www.w3.org/2001/XMLSchema-instance" xsi:noNamespaceSchemaLocation="http://sumo.dlr.de/xsd/netconvertConfiguration.xsd">

    <input>
        <sumo-net-file value="/home/zihaoz/Desktop/deeprl_driving_behaviors/gym-traffic/gym_traffic/envs/config/cross/cross.net.xml"/>
    </input>

    <output>
        <output-file value="/home/zihaoz/Desktop/deeprl_driving_behaviors/gym-traffic/gym_traffic/envs/config/cross/11.net.xml"/>
    </output>

    <processing>
        <no-turnarounds value="true"/>
        <offset.disable-normalization value="true"/>
        <lefthand value="false"/>
        <junctions.corner-detail value="0"/>
        <rectangular-lane-cut value="false"/>
    </processing>

</configuration>
-->

<net version="0.27" xmlns:xsi="http://www.w3.org/2001/XMLSchema-instance" xsi:noNamespaceSchemaLocation="http://sumo.dlr.de/xsd/net_file.xsd">

    <location netOffset="251.00,251.00" convBoundary="0.00,0.00,60.00,60.00" origBoundary="-251.00,-251.00,251.00,251.00" projParameter="!"/>

    <edge id=":0_0" function="internal">
        <lane id=":0_0_0" index="0" speed="13.90" length="9.50" shape="28.35,34.75 28.35,25.25"/>
    </edge>
    <edge id=":0_1" function="internal">
        <lane id=":0_1_0" index="0" speed="13.90" length="5.00" shape="34.75,31.65 33.39,31.84 32.43,32.42 31.84,33.39 31.65,34.75"/>
    </edge>
    <edge id=":0_2" function="internal">
        <lane id=":0_2_0" index="0" speed="13.90" length="9.50" shape="34.75,31.65 25.25,31.65"/>
    </edge>
    <edge id=":0_3" function="internal">
        <lane id=":0_3_0" index="0" speed="13.90" length="9.50" shape="31.65,25.25 31.65,34.75"/>
    </edge>
    <edge id=":0_4" function="internal">
        <lane id=":0_4_0" index="0" speed="13.90" length="9.50" shape="25.25,28.35 34.75,28.35"/>
    </edge>
    <edge id=":0_5" function="internal">
        <lane id=":0_5_0" index="0" speed="13.90" length="10.32" shape="25.25,28.35 28.05,28.75 30.05,29.95 31.25,31.95 31.65,34.75"/>
    </edge>
    <edge id=":e_0" function="internal">
        <lane id=":e_0_0" index="0" speed="13.90" length="4.82" shape="60.00,28.35 61.24,29.17 61.65,30.00 61.24,30.82 60.00,31.65"/>
    </edge>
    <edge id=":n_0" function="internal">
        <lane id=":n_0_0" index="0" speed="13.90" length="4.82" shape="31.65,60.00 30.82,61.24 30.00,61.65 29.18,61.24 28.35,60.00"/>
    </edge>
    <edge id=":s_0" function="internal">
        <lane id=":s_0_0" index="0" speed="13.90" length="4.82" shape="28.35,0.00 29.17,-1.24 30.00,-1.65 30.82,-1.24 31.65,0.00"/>
    </edge>
    <edge id=":w_0" function="internal">
        <lane id=":w_0_0" index="0" speed="13.90" length="4.82" shape="0.00,31.65 -1.24,30.82 -1.65,30.00 -1.24,29.18 0.00,28.35"/>
    </edge>

    <edge id="0_e" from="0" to="e" priority="-1" length="30.00">
        <lane id="0_e_0" index="0" speed="13.90" length="30.00" shape="34.75,28.35 60.00,28.35"/>
    </edge>
    <edge id="0_n" from="0" to="n" priority="-1" length="30.00">
        <lane id="0_n_0" index="0" speed="13.90" length="30.00" shape="31.65,34.75 31.65,60.00"/>
    </edge>
    <edge id="0_s" from="0" to="s" priority="-1" length="30.00">
        <lane id="0_s_0" index="0" speed="13.90" length="30.00" shape="28.35,25.25 28.35,0.00"/>
    </edge>
    <edge id="0_w" from="0" to="w" priority="-1" length="30.00">
        <lane id="0_w_0" index="0" speed="13.90" length="30.00" shape="25.25,31.65 0.00,31.65"/>
    </edge>
    <edge id="e_0" from="e" to="0" priority="-1" length="30.00">
        <lane id="e_0_0" index="0" speed="13.90" length="30.00" shape="60.00,31.65 34.75,31.65"/>
    </edge>
    <edge id="n_0" from="n" to="0" priority="-1" length="30.00">
        <lane id="n_0_0" index="0" speed="13.90" length="30.00" shape="28.35,60.00 28.35,34.75"/>
    </edge>
    <edge id="s_0" from="s" to="0" priority="-1" length="30.00">
        <lane id="s_0_0" index="0" speed="13.90" length="30.00" shape="31.65,0.00 31.65,25.25"/>
    </edge>
    <edge id="w_0" from="w" to="0" priority="-1" length="30.00">
        <lane id="w_0_0" index="0" speed="13.90" length="30.00" shape="0.00,28.35 25.25,28.35"/>
    </edge>

    <junction id="0" type="priority" x="30.00" y="30.00" incLanes="n_0_0 e_0_0 s_0_0 w_0_0" intLanes=":0_0_0 :0_1_0 :0_2_0 :0_3_0 :0_4_0 :0_5_0" shape="26.75,34.75 33.25,34.75 34.75,33.25 34.75,26.75 33.25,25.25 26.75,25.25 25.25,26.75 25.25,33.25" customShape="1">
        <request index="0" response="000000" foes="110100" cont="0"/>
        <request index="1" response="001000" foes="101000" cont="0"/>
        <request index="2" response="001001" foes="101001" cont="0"/>
        <request index="3" response="000000" foes="110110" cont="0"/>
        <request index="4" response="001001" foes="001001" cont="0"/>
        <request index="5" response="001111" foes="001111" cont="0"/>
    </junction>
    <junction id="e" type="priority" x="60.00" y="30.00" incLanes="0_e_0" intLanes=":e_0_0" shape="60.00,30.05 60.00,26.75 60.00,29.95">
        <request index="0" response="0" foes="0" cont="0"/>
    </junction>
    <junction id="n" type="priority" x="30.00" y="60.00" incLanes="0_n_0" intLanes=":n_0_0" shape="29.95,60.00 33.25,60.00 30.05,60.00">
        <request index="0" response="0" foes="0" cont="0"/>
    </junction>
    <junction id="s" type="priority" x="30.00" y="0.00" incLanes="0_s_0" intLanes=":s_0_0" shape="30.05,0.00 26.75,0.00 29.95,0.00">
        <request index="0" response="0" foes="0" cont="0"/>
    </junction>
    <junction id="w" type="priority" x="0.00" y="30.00" incLanes="0_w_0" intLanes=":w_0_0" shape="0.00,29.95 0.00,33.25 0.00,30.05">
        <request index="0" response="0" foes="0" cont="0"/>
    </junction>

    <connection from="0_e" to="e_0" fromLane="0" toLane="0" via=":e_0_0" dir="t" state="M"/>
    <connection from="0_n" to="n_0" fromLane="0" toLane="0" via=":n_0_0" dir="t" state="M"/>
    <connection from="0_s" to="s_0" fromLane="0" toLane="0" via=":s_0_0" dir="t" state="M"/>
    <connection from="0_w" to="w_0" fromLane="0" toLane="0" via=":w_0_0" dir="t" state="M"/>
    <connection from="e_0" to="0_n" fromLane="0" toLane="0" via=":0_1_0" dir="r" state="m"/>
    <connection from="e_0" to="0_w" fromLane="0" toLane="0" via=":0_2_0" dir="s" state="m"/>
    <connection from="n_0" to="0_s" fromLane="0" toLane="0" via=":0_0_0" dir="s" state="M"/>
    <connection from="s_0" to="0_n" fromLane="0" toLane="0" via=":0_3_0" dir="s" state="M"/>
    <connection from="w_0" to="0_e" fromLane="0" toLane="0" via=":0_4_0" dir="s" state="m"/>
    <connection from="w_0" to="0_n" fromLane="0" toLane="0" via=":0_5_0" dir="l" state="m"/>

    <connection from=":0_0" to="0_s" fromLane="0" toLane="0" dir="s" state="M"/>
    <connection from=":0_1" to="0_n" fromLane="0" toLane="0" dir="s" state="M"/>
    <connection from=":0_2" to="0_w" fromLane="0" toLane="0" dir="s" state="M"/>
    <connection from=":0_3" to="0_n" fromLane="0" toLane="0" dir="s" state="M"/>
    <connection from=":0_4" to="0_e" fromLane="0" toLane="0" dir="s" state="M"/>
    <connection from=":0_5" to="0_n" fromLane="0" toLane="0" dir="s" state="M"/>
    <connection from=":e_0" to="e_0" fromLane="0" toLane="0" dir="s" state="M"/>
    <connection from=":n_0" to="n_0" fromLane="0" toLane="0" dir="s" state="M"/>
    <connection from=":s_0" to="s_0" fromLane="0" toLane="0" dir="s" state="M"/>
    <connection from=":w_0" to="w_0" fromLane="0" toLane="0" dir="s" state="M"/>

</net>
