<?xml version="1.0" encoding="UTF-8"?>

<!-- generated on Sun 26 Nov 2017 10:22:28 PM EST by Netedit Version 0.30.0

<?xml version="1.0" encoding="UTF-8"?>

<configuration xmlns:xsi="http://www.w3.org/2001/XMLSchema-instance" xsi:noNamespaceSchemaLocation="http://sumo.dlr.de/xsd/netconvertConfiguration.xsd">

    <input>
        <sumo-net-file value="/home/zihaoz/Desktop/deeprl_driving_behaviors/gym-traffic/gym_traffic/envs/config/cross/cross.net.xml"/>
    </input>

    <output>
        <output-file value="/home/zihaoz/Desktop/deeprl_driving_behaviors/gym-traffic/gym_traffic/envs/config/cross/cross.net.xml"/>
    </output>

    <processing>
        <no-turnarounds value="true"/>
        <offset.disable-normalization value="true"/>
        <lefthand value="false"/>
        <junctions.corner-detail value="0"/>
        <rectangular-lane-cut value="false"/>
    </processing>

</configuration>
-->

<net version="0.27" xmlns:xsi="http://www.w3.org/2001/XMLSchema-instance" xsi:noNamespaceSchemaLocation="http://sumo.dlr.de/xsd/net_file.xsd">

    <location netOffset="251.00,251.00" convBoundary="0.00,0.00,502.00,502.00" origBoundary="-251.00,-251.00,251.00,251.00" projParameter="!"/>

    <edge id=":0_0" function="internal">
        <lane id=":0_0_0" index="0" speed="13.90" length="9.50" shape="249.35,255.75 249.35,246.25"/>
    </edge>
    <edge id=":0_1" function="internal">
        <lane id=":0_1_0" index="0" speed="13.90" length="5.00" shape="255.75,252.65 254.39,252.84 253.42,253.43 252.84,254.39 252.65,255.75"/>
    </edge>
    <edge id=":0_2" function="internal">
        <lane id=":0_2_0" index="0" speed="13.90" length="9.50" shape="255.75,252.65 246.25,252.65"/>
    </edge>
    <edge id=":0_3" function="internal">
        <lane id=":0_3_0" index="0" speed="13.90" length="9.50" shape="252.65,246.25 252.65,255.75"/>
    </edge>
    <edge id=":0_4" function="internal">
        <lane id=":0_4_0" index="0" speed="13.90" length="9.50" shape="246.25,249.35 255.75,249.35"/>
    </edge>
    <edge id=":0_5" function="internal">
        <lane id=":0_5_0" index="0" speed="13.90" length="10.32" shape="246.25,249.35 249.05,249.75 251.05,250.95 252.25,252.95 252.65,255.75"/>
    </edge>
    <edge id=":e_0" function="internal">
        <lane id=":e_0_0" index="0" speed="13.90" length="4.82" shape="502.00,249.35 503.24,250.18 503.65,251.00 503.24,251.82 502.00,252.65"/>
    </edge>
    <edge id=":n_0" function="internal">
        <lane id=":n_0_0" index="0" speed="13.90" length="4.82" shape="252.65,502.00 251.82,503.24 251.00,503.65 250.18,503.24 249.35,502.00"/>
    </edge>
    <edge id=":s_0" function="internal">
        <lane id=":s_0_0" index="0" speed="13.90" length="4.82" shape="249.35,0.00 250.18,-1.24 251.00,-1.65 251.82,-1.24 252.65,0.00"/>
    </edge>
    <edge id=":w_0" function="internal">
        <lane id=":w_0_0" index="0" speed="13.90" length="4.82" shape="0.00,252.65 -1.24,251.82 -1.65,251.00 -1.24,250.18 0.00,249.35"/>
    </edge>

    <edge id="0_e" from="0" to="e" priority="-1">
        <lane id="0_e_0" index="0" speed="13.90" length="246.25" shape="255.75,249.35 502.00,249.35"/>
    </edge>
    <edge id="0_n" from="0" to="n" priority="-1">
        <lane id="0_n_0" index="0" speed="13.90" length="246.25" shape="252.65,255.75 252.65,502.00"/>
    </edge>
    <edge id="0_s" from="0" to="s" priority="-1">
        <lane id="0_s_0" index="0" speed="13.90" length="246.25" shape="249.35,246.25 249.35,0.00"/>
    </edge>
    <edge id="0_w" from="0" to="w" priority="-1">
        <lane id="0_w_0" index="0" speed="13.90" length="246.25" shape="246.25,252.65 0.00,252.65"/>
    </edge>
    <edge id="e_0" from="e" to="0" priority="-1">
        <lane id="e_0_0" index="0" speed="13.90" length="246.25" shape="502.00,252.65 255.75,252.65"/>
    </edge>
    <edge id="n_0" from="n" to="0" priority="-1">
        <lane id="n_0_0" index="0" speed="13.90" length="246.25" shape="249.35,502.00 249.35,255.75"/>
    </edge>
    <edge id="s_0" from="s" to="0" priority="-1">
        <lane id="s_0_0" index="0" speed="13.90" length="246.25" shape="252.65,0.00 252.65,246.25"/>
    </edge>
    <edge id="w_0" from="w" to="0" priority="-1">
        <lane id="w_0_0" index="0" speed="13.90" length="246.25" shape="0.00,249.35 246.25,249.35"/>
    </edge>

    <junction id="0" type="priority" x="251.00" y="251.00" incLanes="n_0_0 e_0_0 s_0_0 w_0_0" intLanes=":0_0_0 :0_1_0 :0_2_0 :0_3_0 :0_4_0 :0_5_0" shape="247.75,255.75 254.25,255.75 255.75,254.25 255.75,247.75 254.25,246.25 247.75,246.25 246.25,247.75 246.25,254.25" customShape="1">
        <request index="0" response="000000" foes="110100" cont="0"/>
        <request index="1" response="001000" foes="101000" cont="0"/>
        <request index="2" response="001001" foes="101001" cont="0"/>
        <request index="3" response="000000" foes="110110" cont="0"/>
        <request index="4" response="001001" foes="001001" cont="0"/>
        <request index="5" response="001111" foes="001111" cont="0"/>
    </junction>
    <junction id="e" type="priority" x="502.00" y="251.00" incLanes="0_e_0" intLanes=":e_0_0" shape="502.00,251.05 502.00,247.75 502.00,250.95">
        <request index="0" response="0" foes="0" cont="0"/>
    </junction>
    <junction id="n" type="priority" x="251.00" y="502.00" incLanes="0_n_0" intLanes=":n_0_0" shape="250.95,502.00 254.25,502.00 251.05,502.00">
        <request index="0" response="0" foes="0" cont="0"/>
    </junction>
    <junction id="s" type="priority" x="251.00" y="0.00" incLanes="0_s_0" intLanes=":s_0_0" shape="251.05,0.00 247.75,0.00 250.95,0.00">
        <request index="0" response="0" foes="0" cont="0"/>
    </junction>
    <junction id="w" type="priority" x="0.00" y="251.00" incLanes="0_w_0" intLanes=":w_0_0" shape="0.00,250.95 0.00,254.25 0.00,251.05">
        <request index="0" response="0" foes="0" cont="0"/>
    </junction>

    <connection from="0_e" to="e_0" fromLane="0" toLane="0" via=":e_0_0" dir="t" state="M"/>
    <connection from="0_n" to="n_0" fromLane="0" toLane="0" via=":n_0_0" dir="t" state="M"/>
    <connection from="0_s" to="s_0" fromLane="0" toLane="0" via=":s_0_0" dir="t" state="M"/>
    <connection from="0_w" to="w_0" fromLane="0" toLane="0" via=":w_0_0" dir="t" state="M"/>

    <connection from="e_0" to="0_n" fromLane="0" toLane="0" via=":0_1_0" dir="r" state="m"/>
    <connection from="e_0" to="0_w" fromLane="0" toLane="0" via=":0_2_0" dir="s" state="M"/>
    <connection from="n_0" to="0_s" fromLane="0" toLane="0" via=":0_0_0" dir="s" state="m"/>
    <connection from="s_0" to="0_n" fromLane="0" toLane="0" via=":0_3_0" dir="s" state="m"/>
    <connection from="w_0" to="0_e" fromLane="0" toLane="0" via=":0_4_0" dir="s" state="M"/>
    <connection from="w_0" to="0_n" fromLane="0" toLane="0" via=":0_5_0" dir="l" state="M"/>

    <connection from=":0_0" to="0_s" fromLane="0" toLane="0" dir="s" state="M"/>
    <connection from=":0_1" to="0_n" fromLane="0" toLane="0" dir="s" state="M"/>
    <connection from=":0_2" to="0_w" fromLane="0" toLane="0" dir="s" state="M"/>
    <connection from=":0_3" to="0_n" fromLane="0" toLane="0" dir="s" state="M"/>
    <connection from=":0_4" to="0_e" fromLane="0" toLane="0" dir="s" state="M"/>
    <connection from=":0_5" to="0_n" fromLane="0" toLane="0" dir="s" state="M"/>
    <connection from=":e_0" to="e_0" fromLane="0" toLane="0" dir="s" state="M"/>
    <connection from=":n_0" to="n_0" fromLane="0" toLane="0" dir="s" state="M"/>
    <connection from=":s_0" to="s_0" fromLane="0" toLane="0" dir="s" state="M"/>
    <connection from=":w_0" to="w_0" fromLane="0" toLane="0" dir="s" state="M"/>

</net>
