<?xml version="1.0" encoding="UTF-8"?>

<!-- generated on Wed 06 Dec 2017 12:12:43 AM EST by Netedit Version 0.30.0
<?xml version="1.0" encoding="UTF-8"?>

<configuration xmlns:xsi="http://www.w3.org/2001/XMLSchema-instance" xsi:noNamespaceSchemaLocation="http://sumo.dlr.de/xsd/netconvertConfiguration.xsd">

    <input>
        <sumo-net-file value="/home/andy/Dropbox/School%2017-18/F17_Planning%20and%20Decision-Making/project/deeprl_driving_behaviors/gym-traffic/gym_traffic/envs/config/challenge/cross2.net.xml"/>
    </input>

    <output>
        <output-file value="/home/andy/Dropbox/School%2017-18/F17_Planning%20and%20Decision-Making/project/deeprl_driving_behaviors/gym-traffic/gym_traffic/envs/config/challenge/cross2.net.xml"/>
        <output.street-names value="true"/>
    </output>

    <processing>
        <no-turnarounds value="true"/>
        <offset.disable-normalization value="true"/>
        <lefthand value="false"/>
        <junctions.corner-detail value="0"/>
        <rectangular-lane-cut value="false"/>
    </processing>

</configuration>
-->

<net version="0.27" xmlns:xsi="http://www.w3.org/2001/XMLSchema-instance" xsi:noNamespaceSchemaLocation="http://sumo.dlr.de/xsd/net_file.xsd">

    <location netOffset="0.00,0.00" convBoundary="-300.00,-300.00,300.00,300.00" origBoundary="-10000000000.00,-10000000000.00,10000000000.00,10000000000.00" projParameter="!"/>

    <edge id=":East_0" function="internal">
        <lane id=":East_0_0" index="0" speed="13.89" length="4.82" shape="300.00,-1.65 301.24,-0.83 301.65,0.00 301.24,0.83 300.00,1.65"/>
    </edge>
    <edge id=":Main_0" function="internal">
        <lane id=":Main_0_0" index="0" speed="13.89" length="5.00" shape="-1.65,11.35 -1.84,9.99 -2.43,9.03 -3.39,8.44 -4.75,8.25"/>
    </edge>
    <edge id=":Main_1" function="internal">
        <lane id=":Main_1_0" index="0" speed="13.89" length="22.70" shape="-1.65,11.35 -1.65,-11.35"/>
    </edge>
    <edge id=":Main_2" function="internal">
        <lane id=":Main_2_0" index="0" speed="13.89" length="16.01" shape="-1.65,11.35 -1.25,5.66 -0.05,1.60 1.95,-0.84 4.75,-1.65"/>
    </edge>
    <edge id=":Main_3" function="internal">
        <lane id=":Main_3_0" index="0" speed="13.89" length="5.00" shape="4.75,8.25 3.39,8.44 2.43,9.03 1.84,9.99 1.65,11.35"/>
    </edge>
    <edge id=":Main_4" function="internal">
        <lane id=":Main_4_0" index="0" speed="13.89" length="9.50" shape="4.75,8.25 -4.75,8.25"/>
        <lane id=":Main_4_1" index="1" speed="13.89" length="9.50" shape="4.75,4.95 -4.75,4.95"/>
        <lane id=":Main_4_2" index="2" speed="13.89" length="9.50" shape="4.75,1.65 -4.75,1.65"/>
    </edge>
    <edge id=":Main_7" function="internal">
        <lane id=":Main_7_0" index="0" speed="13.89" length="4.06" shape="4.75,1.65 1.95,0.84 1.22,-0.05"/>
    </edge>
    <edge id=":Main_16" function="internal">
        <lane id=":Main_16_0" index="0" speed="13.89" length="11.94" shape="1.22,-0.05 -0.05,-1.60 -1.25,-5.66 -1.65,-11.35"/>
    </edge>
    <edge id=":Main_8" function="internal">
        <lane id=":Main_8_0" index="0" speed="13.89" length="5.00" shape="1.65,-11.35 1.84,-9.99 2.43,-9.03 3.39,-8.44 4.75,-8.25"/>
    </edge>
    <edge id=":Main_9" function="internal">
        <lane id=":Main_9_0" index="0" speed="13.89" length="22.70" shape="1.65,-11.35 1.65,11.35"/>
    </edge>
    <edge id=":Main_10" function="internal">
        <lane id=":Main_10_0" index="0" speed="13.89" length="16.01" shape="1.65,-11.35 1.25,-5.66 0.05,-1.60 -1.95,0.84 -4.75,1.65"/>
    </edge>
    <edge id=":Main_11" function="internal">
        <lane id=":Main_11_0" index="0" speed="13.89" length="5.00" shape="-4.75,-8.25 -3.39,-8.44 -2.43,-9.03 -1.84,-9.99 -1.65,-11.35"/>
    </edge>
    <edge id=":Main_12" function="internal">
        <lane id=":Main_12_0" index="0" speed="13.89" length="9.50" shape="-4.75,-8.25 4.75,-8.25"/>
        <lane id=":Main_12_1" index="1" speed="13.89" length="9.50" shape="-4.75,-4.95 4.75,-4.95"/>
        <lane id=":Main_12_2" index="2" speed="13.89" length="9.50" shape="-4.75,-1.65 4.75,-1.65"/>
    </edge>
    <edge id=":Main_15" function="internal">
        <lane id=":Main_15_0" index="0" speed="13.89" length="4.06" shape="-4.75,-1.65 -1.95,-0.84 -1.22,0.05"/>
    </edge>
    <edge id=":Main_17" function="internal">
        <lane id=":Main_17_0" index="0" speed="13.89" length="11.94" shape="-1.22,0.05 0.05,1.60 1.25,5.66 1.65,11.35"/>
    </edge>
    <edge id=":North_0" function="internal">
        <lane id=":North_0_0" index="0" speed="13.89" length="4.82" shape="1.65,300.00 0.83,301.24 0.00,301.65 -0.83,301.24 -1.65,300.00"/>
    </edge>
    <edge id=":South_0" function="internal">
        <lane id=":South_0_0" index="0" speed="13.89" length="4.82" shape="-1.65,-300.00 -0.83,-301.24 0.00,-301.65 0.83,-301.24 1.65,-300.00"/>
    </edge>
    <edge id=":West_0" function="internal">
        <lane id=":West_0_0" index="0" speed="13.89" length="4.82" shape="-300.00,1.65 -301.24,0.83 -301.65,0.00 -301.24,-0.83 -300.00,-1.65"/>
    </edge>

    <edge id="e_m" from="East" to="Main" name="east_in" priority="2">
        <lane id="e_m_0" index="0" speed="13.89" length="295.25" shape="300.00,8.25 4.75,8.25"/>
        <lane id="e_m_1" index="1" speed="13.89" length="295.25" shape="300.00,4.95 4.75,4.95"/>
        <lane id="e_m_2" index="2" speed="13.89" length="295.25" shape="300.00,1.65 4.75,1.65"/>
    </edge>
    <edge id="m_e" from="Main" to="East" name="east_out" priority="2">
        <lane id="m_e_0" index="0" speed="13.89" length="295.25" shape="4.75,-8.25 300.00,-8.25"/>
        <lane id="m_e_1" index="1" speed="13.89" length="295.25" shape="4.75,-4.95 300.00,-4.95"/>
        <lane id="m_e_2" index="2" speed="13.89" length="295.25" shape="4.75,-1.65 300.00,-1.65"/>
    </edge>
    <edge id="m_n" from="Main" to="North" name="north_out" priority="1">
        <lane id="m_n_0" index="0" speed="13.89" length="288.65" shape="1.65,11.35 1.65,300.00"/>
    </edge>
    <edge id="m_s" from="Main" to="South" name="south_out" priority="1">
        <lane id="m_s_0" index="0" speed="13.89" length="288.65" shape="-1.65,-11.35 -1.65,-300.00"/>
    </edge>
    <edge id="m_w" from="Main" to="West" name="west_out" priority="2">
        <lane id="m_w_0" index="0" speed="13.89" length="295.25" shape="-4.75,8.25 -300.00,8.25"/>
        <lane id="m_w_1" index="1" speed="13.89" length="295.25" shape="-4.75,4.95 -300.00,4.95"/>
        <lane id="m_w_2" index="2" speed="13.89" length="295.25" shape="-4.75,1.65 -300.00,1.65"/>
    </edge>
    <edge id="n_m" from="North" to="Main" name="north_in" priority="1">
        <lane id="n_m_0" index="0" speed="13.89" length="288.65" shape="-1.65,300.00 -1.65,11.35"/>
    </edge>
    <edge id="s_m" from="South" to="Main" name="south_in" priority="1">
        <lane id="s_m_0" index="0" speed="13.89" length="288.65" shape="1.65,-300.00 1.65,-11.35"/>
    </edge>
    <edge id="w_m" from="West" to="Main" name="west_in" priority="2">
        <lane id="w_m_0" index="0" speed="13.89" length="295.25" shape="-300.00,-8.25 -4.75,-8.25"/>
        <lane id="w_m_1" index="1" speed="13.89" length="295.25" shape="-300.00,-4.95 -4.75,-4.95"/>
        <lane id="w_m_2" index="2" speed="13.89" length="295.25" shape="-300.00,-1.65 -4.75,-1.65"/>
    </edge>

    <junction id="East" type="priority" x="300.00" y="0.00" incLanes="m_e_0 m_e_1 m_e_2" intLanes=":East_0_0" shape="300.00,0.05 300.00,-9.85 300.00,-0.05">
        <request index="0" response="0" foes="0" cont="0"/>
    </junction>
    <junction id="Main" type="priority" x="0.00" y="0.00" incLanes="n_m_0 e_m_0 e_m_1 e_m_2 s_m_0 w_m_0 w_m_1 w_m_2" intLanes=":Main_0_0 :Main_1_0 :Main_2_0 :Main_3_0 :Main_4_0 :Main_4_1 :Main_4_2 :Main_16_0 :Main_8_0 :Main_9_0 :Main_10_0 :Main_11_0 :Main_12_0 :Main_12_1 :Main_12_2 :Main_17_0" shape="-3.25,11.35 3.25,11.35 4.75,9.85 4.75,-9.85 3.25,-11.35 -3.25,-11.35 -4.75,-9.85 -4.75,9.85">
        <request index="0" response="0000000001110000" foes="0000010001110000" cont="0"/>
        <request index="1" response="1111100011110000" foes="1111110011110000" cont="0"/>
        <request index="2" response="1111001111110000" foes="1111001111110000" cont="0"/>
        <request index="3" response="0000000000000000" foes="1000001000000000" cont="0"/>
        <request index="4" response="0000000000000000" foes="1000011000000111" cont="0"/>
        <request index="5" response="0000000000000000" foes="1000011000000111" cont="0"/>
        <request index="6" response="0000000000000000" foes="1000011000000111" cont="0"/>
        <request index="7" response="0111100000000000" foes="0111111000000110" cont="1"/>
        <request index="8" response="0111000000000000" foes="0111000000000100" cont="0"/>
        <request index="9" response="1111000011111000" foes="1111000011111100" cont="0"/>
        <request index="10" response="1111000011110011" foes="1111000011110011" cont="0"/>
        <request index="11" response="0000000000000000" foes="0000000010000010" cont="0"/>
        <request index="12" response="0000000000000000" foes="0000011110000110" cont="0"/>
        <request index="13" response="0000000000000000" foes="0000011110000110" cont="0"/>
        <request index="14" response="0000000000000000" foes="0000011110000110" cont="0"/>
        <request index="15" response="0000000001111000" foes="0000011001111110" cont="1"/>
    </junction>
    <junction id="North" type="priority" x="0.00" y="300.00" incLanes="m_n_0" intLanes=":North_0_0" shape="-0.05,300.00 3.25,300.00 0.05,300.00">
        <request index="0" response="0" foes="0" cont="0"/>
    </junction>
    <junction id="South" type="priority" x="0.00" y="-300.00" incLanes="m_s_0" intLanes=":South_0_0" shape="0.05,-300.00 -3.25,-300.00 -0.05,-300.00">
        <request index="0" response="0" foes="0" cont="0"/>
    </junction>
    <junction id="West" type="priority" x="-300.00" y="0.00" incLanes="m_w_0 m_w_1 m_w_2" intLanes=":West_0_0" shape="-300.00,-0.05 -300.00,9.85 -300.00,0.05">
        <request index="0" response="0" foes="0" cont="0"/>
    </junction>

    <junction id=":Main_16_0" type="internal" x="1.22" y="-0.05" incLanes=":Main_7_0 w_m_0 w_m_1 w_m_2" intLanes=":Main_1_0 :Main_2_0 :Main_9_0 :Main_10_0 :Main_11_0 :Main_12_0 :Main_12_1 :Main_12_2"/>
    <junction id=":Main_17_0" type="internal" x="-1.22" y="0.05" incLanes=":Main_15_0 e_m_0 e_m_1 e_m_2" intLanes=":Main_1_0 :Main_2_0 :Main_3_0 :Main_4_0 :Main_4_1 :Main_4_2 :Main_9_0 :Main_10_0"/>

    <connection from="e_m" to="m_n" fromLane="0" toLane="0" via=":Main_3_0" dir="r" state="M"/>
    <connection from="e_m" to="m_w" fromLane="0" toLane="0" via=":Main_4_0" dir="s" state="M"/>
    <connection from="e_m" to="m_w" fromLane="1" toLane="1" via=":Main_4_1" dir="s" state="M"/>
    <connection from="e_m" to="m_w" fromLane="2" toLane="2" via=":Main_4_2" dir="s" state="M"/>
    <connection from="e_m" to="m_s" fromLane="2" toLane="0" via=":Main_7_0" dir="l" state="m"/>
    <connection from="m_e" to="e_m" fromLane="2" toLane="2" via=":East_0_0" dir="t" state="M"/>
    <connection from="m_n" to="n_m" fromLane="0" toLane="0" via=":North_0_0" dir="t" state="M"/>
    <connection from="m_s" to="s_m" fromLane="0" toLane="0" via=":South_0_0" dir="t" state="M"/>
    <connection from="m_w" to="w_m" fromLane="2" toLane="2" via=":West_0_0" dir="t" state="M"/>
    <connection from="n_m" to="m_w" fromLane="0" toLane="0" via=":Main_0_0" dir="r" state="m"/>
    <connection from="n_m" to="m_s" fromLane="0" toLane="0" via=":Main_1_0" dir="s" state="m"/>
    <connection from="n_m" to="m_e" fromLane="0" toLane="2" via=":Main_2_0" dir="l" state="m"/>
    <connection from="s_m" to="m_e" fromLane="0" toLane="0" via=":Main_8_0" dir="r" state="m"/>
    <connection from="s_m" to="m_n" fromLane="0" toLane="0" via=":Main_9_0" dir="s" state="m"/>
    <connection from="s_m" to="m_w" fromLane="0" toLane="2" via=":Main_10_0" dir="l" state="m"/>
    <connection from="w_m" to="m_s" fromLane="0" toLane="0" via=":Main_11_0" dir="r" state="M"/>
    <connection from="w_m" to="m_e" fromLane="0" toLane="0" via=":Main_12_0" dir="s" state="M"/>
    <connection from="w_m" to="m_e" fromLane="1" toLane="1" via=":Main_12_1" dir="s" state="M"/>
    <connection from="w_m" to="m_e" fromLane="2" toLane="2" via=":Main_12_2" dir="s" state="M"/>
    <connection from="w_m" to="m_n" fromLane="2" toLane="0" via=":Main_15_0" dir="l" state="m"/>

    <connection from=":East_0" to="e_m" fromLane="0" toLane="2" dir="s" state="M"/>
    <connection from=":Main_0" to="m_w" fromLane="0" toLane="0" dir="s" state="M"/>
    <connection from=":Main_1" to="m_s" fromLane="0" toLane="0" dir="s" state="M"/>
    <connection from=":Main_2" to="m_e" fromLane="0" toLane="2" dir="s" state="M"/>
    <connection from=":Main_3" to="m_n" fromLane="0" toLane="0" dir="s" state="M"/>
    <connection from=":Main_4" to="m_w" fromLane="0" toLane="0" dir="s" state="M"/>
    <connection from=":Main_4" to="m_w" fromLane="1" toLane="1" dir="s" state="M"/>
    <connection from=":Main_4" to="m_w" fromLane="2" toLane="2" dir="s" state="M"/>
    <connection from=":Main_7" to="m_s" fromLane="0" toLane="0" via=":Main_16_0" dir="s" state="m"/>
    <connection from=":Main_16" to="m_s" fromLane="0" toLane="0" dir="s" state="M"/>
    <connection from=":Main_8" to="m_e" fromLane="0" toLane="0" dir="s" state="M"/>
    <connection from=":Main_9" to="m_n" fromLane="0" toLane="0" dir="s" state="M"/>
    <connection from=":Main_10" to="m_w" fromLane="0" toLane="2" dir="s" state="M"/>
    <connection from=":Main_11" to="m_s" fromLane="0" toLane="0" dir="s" state="M"/>
    <connection from=":Main_12" to="m_e" fromLane="0" toLane="0" dir="s" state="M"/>
    <connection from=":Main_12" to="m_e" fromLane="1" toLane="1" dir="s" state="M"/>
    <connection from=":Main_12" to="m_e" fromLane="2" toLane="2" dir="s" state="M"/>
    <connection from=":Main_15" to="m_n" fromLane="0" toLane="0" via=":Main_17_0" dir="s" state="m"/>
    <connection from=":Main_17" to="m_n" fromLane="0" toLane="0" dir="s" state="M"/>
    <connection from=":North_0" to="n_m" fromLane="0" toLane="0" dir="s" state="M"/>
    <connection from=":South_0" to="s_m" fromLane="0" toLane="0" dir="s" state="M"/>
    <connection from=":West_0" to="w_m" fromLane="0" toLane="2" dir="s" state="M"/>

</net>
