<configuration>
    <input>
        <net-file value="challenge.net.xml"/>
        <route-files value="challenge.rou.xml"/>
        <additional-files value="challenge.add.xml"/> 
    </input>
    <gui-settings-file value="view.settings.xml"/>
</configuration>
