<configuration>
    <input>
        <net-file value="left2.net.xml"/>
        <route-files value="left2.rou.xml"/>
        <!-- <additional-files value="left2.add.xml"/> -->
    </input>
    <gui-settings-file value="view.settings.xml"/>
</configuration>
